@<TRIPOS>MOLECULE
MOL
   18    19     1     0     0
SMALL
bcc


@<TRIPOS>ATOM
      1 C1          14.0080     0.0210    -9.2320 c          1 MOL       0.878600
      2 O1          14.8360    -0.5000    -8.4770 o          1 MOL      -0.447800
      3 C2          10.1160     3.4800   -13.1000 cg         1 MOL      -0.126200
      4 C3          10.4220     4.2910   -14.2020 ch         1 MOL      -0.125700
      5 C4          11.7150     4.2610   -14.7420 c          1 MOL       0.653500
      6 O2          12.0610     5.0840   -15.8400 o          1 MOL      -0.416100
      7 C5          12.7000     3.4560   -14.1600 ch         1 MOL      -0.125700
      8 C6          12.4090     2.6800   -13.0400 cg         1 MOL      -0.126200
      9 C7          11.0970     2.6470   -12.5640 ce         1 MOL       0.562100
     10 N1          10.8350     1.8730   -11.3250 nf         1 MOL      -0.291700
     11 O3          14.4040     0.5040   -10.4960 o          1 MOL      -0.447800
     12 C8          11.6000     0.7730    -9.4140 ce         1 MOL       0.520500
     13 N2          11.8680     1.3760   -10.7370 nf         1 MOL      -0.332700
     14 C9          12.5990     0.2000    -8.6580 ce         1 MOL       0.093700
     15 C10         12.3220    -0.2780    -7.3670 cg         1 MOL      -0.174300
     16 C11         11.0520    -0.0840    -6.8240 ch         1 MOL       0.048000
     17 C12         10.0540     0.5640    -7.5670 ch         1 MOL       0.054000
     18 C13         10.3170     1.0120    -8.8500 cg         1 MOL      -0.195200
@<TRIPOS>BOND
     1     1     2 1   
     2     1    11 1   
     3     3     4 3   
     4     4     5 1   
     5     5     6 2   
     6     5     7 1   
     7     7     8 3   
     8     3     9 1   
     9     8     9 1   
    10     9    10 2   
    11    12    13 2   
    12    12    14 1   
    13    12    18 1   
    14    10    13 1   
    15     1    14 2   
    16    14    15 1   
    17    15    16 3   
    18    16    17 1   
    19    17    18 3   
@<TRIPOS>SUBSTRUCTURE
     1 MOL         1 TEMP              0 ****  ****    0 ROOT
