L-Biotin
     RDKit          3D

 16 17  0  0  0  0  0  0  0  0999 V2000
    0.9138    1.6270   -0.1013 C   0  0  0  0  0  0  0  0  0  0  0  0
   -0.5981    1.5486   -0.1876 C   0  0  2  0  0  0  0  0  0  0  0  0
   -1.2612    2.3037    0.9611 C   0  0  2  0  0  0  0  0  0  0  0  0
   -0.3373    2.2536    2.1635 C   0  0  0  0  0  0  0  0  0  0  0  0
    1.3203    2.4212    1.4731 S   0  0  0  0  0  0  0  0  0  0  0  0
   -2.4366    1.5022    1.2388 N   0  0  0  0  0  0  0  0  0  0  0  0
   -2.3368    0.2464    0.6214 C   0  0  0  0  0  0  0  0  0  0  0  0
   -3.1653   -0.6478    0.6716 O   0  0  0  0  0  0  0  0  0  0  0  0
   -1.1359    0.2159   -0.0937 N   0  0  0  0  0  0  0  0  0  0  0  0
   -0.9229   -0.7395   -1.1488 C   0  0  0  0  0  0  0  0  0  0  0  0
   -0.7137   -2.1386   -0.6089 C   0  0  0  0  0  0  0  0  0  0  0  0
    0.6985   -2.3292   -0.1038 C   0  0  0  0  0  0  0  0  0  0  0  0
    1.6342   -2.6644   -1.2427 C   0  0  0  0  0  0  0  0  0  0  0  0
    2.4894   -1.4709   -1.5207 C   0  0  0  0  0  0  0  0  0  0  0  0
    2.0977   -0.4446   -2.0587 O   0  0  0  0  0  0  0  0  0  0  0  0
    3.7540   -1.6835   -1.0898 O   0  0  0  0  0  0  0  0  0  0  0  0
  2  1  1  1
  2  3  1  0
  3  4  1  1
  4  5  1  0
  3  6  1  0
  6  7  1  0
  7  8  2  0
  7  9  1  0
  9 10  1  0
 10 11  1  0
 11 12  1  0
 12 13  1  0
 13 14  1  0
 14 15  2  0
 14 16  1  0
  5  1  1  0
  9  2  1  0
M  END
$$$$
