L-Biotin
     RDKit          3D

 32 33  0  0  0  0  0  0  0  0999 V2000
   -2.4133    0.6917    0.6796 C   0  0  0  0  0  0  0  0  0  0  0  0
   -1.6403    0.4451   -0.6180 C   0  0  2  0  0  0  0  0  0  0  0  0
   -2.6662    0.2431   -1.7359 C   0  0  2  0  0  0  0  0  0  0  0  0
   -3.8633    1.1549   -1.5261 C   0  0  0  0  0  0  0  0  0  0  0  0
   -3.8831    1.6392    0.2223 S   0  0  0  0  0  0  0  0  0  0  0  0
   -2.9239   -1.1762   -1.6615 N   0  0  0  0  0  0  0  0  0  0  0  0
   -1.8130   -1.8244   -1.1263 C   0  0  0  0  0  0  0  0  0  0  0  0
   -1.6533   -3.0308   -1.1158 O   0  0  0  0  0  0  0  0  0  0  0  0
   -0.9513   -0.8405   -0.6194 N   0  0  0  0  0  0  0  0  0  0  0  0
    0.1331   -1.1794    0.2866 C   0  0  0  0  0  0  0  0  0  0  0  0
    1.2457   -0.1327    0.3163 C   0  0  0  0  0  0  0  0  0  0  0  0
    2.4061   -0.5842    1.2086 C   0  0  0  0  0  0  0  0  0  0  0  0
    3.5118    0.4664    1.3125 C   0  0  0  0  0  0  0  0  0  0  0  0
    4.3296    0.5899    0.0541 C   0  0  0  0  0  0  0  0  0  0  0  0
    4.2916   -0.1252   -0.9313 O   0  0  0  0  0  0  0  0  0  0  0  0
    5.1877    1.6272    0.1151 O   0  0  0  0  0  0  0  0  0  0  0  0
   -1.8060    1.2422    1.4046 H   0  0  0  0  0  0  0  0  0  0  0  0
   -2.7369   -0.2390    1.1581 H   0  0  0  0  0  0  0  0  0  0  0  0
   -0.9477    1.2617   -0.8478 H   0  0  0  0  0  0  0  0  0  0  0  0
   -2.2198    0.4137   -2.7238 H   0  0  0  0  0  0  0  0  0  0  0  0
   -4.8080    0.6793   -1.8053 H   0  0  0  0  0  0  0  0  0  0  0  0
   -3.7496    2.0712   -2.1137 H   0  0  0  0  0  0  0  0  0  0  0  0
   -3.4998   -1.7053   -2.3041 H   0  0  0  0  0  0  0  0  0  0  0  0
   -0.2992   -1.3101    1.2855 H   0  0  0  0  0  0  0  0  0  0  0  0
    0.5379   -2.1524   -0.0158 H   0  0  0  0  0  0  0  0  0  0  0  0
    1.5995    0.0506   -0.7048 H   0  0  0  0  0  0  0  0  0  0  0  0
    0.8509    0.8195    0.6903 H   0  0  0  0  0  0  0  0  0  0  0  0
    2.8168   -1.5294    0.8332 H   0  0  0  0  0  0  0  0  0  0  0  0
    2.0209   -0.7809    2.2168 H   0  0  0  0  0  0  0  0  0  0  0  0
    4.1977    0.1811    2.1181 H   0  0  0  0  0  0  0  0  0  0  0  0
    3.0787    1.4437    1.5523 H   0  0  0  0  0  0  0  0  0  0  0  0
    5.6667    1.5901   -0.7396 H   0  0  0  0  0  0  0  0  0  0  0  0
  1  2  1  0
  2  3  1  0
  3  4  1  0
  4  5  1  0
  3  6  1  0
  6  7  1  0
  7  8  2  0
  7  9  1  0
  9 10  1  0
 10 11  1  0
 11 12  1  0
 12 13  1  0
 13 14  1  0
 14 15  2  0
 14 16  1  0
  5  1  1  0
  9  2  1  0
  1 17  1  0
  1 18  1  0
  2 19  1  6
  3 20  1  6
  4 21  1  0
  4 22  1  0
  6 23  1  0
 10 24  1  0
 10 25  1  0
 11 26  1  0
 11 27  1  0
 12 28  1  0
 12 29  1  0
 13 30  1  0
 13 31  1  0
 16 32  1  0
M  END
$$$$
