@<TRIPOS>MOLECULE
1SRE
 18 19 0 0 0
SMALL
GASTEIGER

@<TRIPOS>ATOM
      1 C          14.0078    0.0207   -9.2316 C.2     1  UNL1        0.3891
      2 O          14.8363   -0.4997   -8.4769 O.co2   1  UNL1       -0.2405
      3 C          10.1156    3.4800  -13.1000 C.ar    1  UNL1        0.0213
      4 C          10.4224    4.2912  -14.2022 C.ar    1  UNL1        0.0434
      5 C          11.7152    4.2608  -14.7415 C.ar    1  UNL1        0.1958
      6 O          12.0610    5.0842  -15.8402 O.3     1  UNL1       -0.2866
      7 C          12.6998    3.4558  -14.1598 C.ar    1  UNL1        0.0434
      8 C          12.4087    2.6800  -13.0398 C.ar    1  UNL1        0.0213
      9 C          11.0967    2.6465  -12.5641 C.ar    1  UNL1        0.0893
     10 N          10.8348    1.8729  -11.3246 N.pl3   1  UNL1       -0.1281
     11 O          14.4039    0.5043  -10.4956 O.co2   1  UNL1       -0.2405
     12 C          11.5995    0.7733   -9.4136 C.ar    1  UNL1        0.0954
     13 N          11.8679    1.3760  -10.7373 N.pl3   1  UNL1       -0.1278
     14 C          12.5988    0.2004   -8.6584 C.ar    1  UNL1        0.0965
     15 C          12.3221   -0.2784   -7.3668 C.ar    1  UNL1        0.0079
     16 C          11.0520   -0.0835   -6.8243 C.ar    1  UNL1        0.0003
     17 C          10.0537    0.5639   -7.5673 C.ar    1  UNL1        0.0014
     18 C          10.3173    1.0124   -8.8498 C.ar    1  UNL1        0.0183
@<TRIPOS>BOND
     1     1     2   ar
     2     1    11   ar
     3     3     4   ar
     4     4     5   ar
     5     5     6    1
     6     5     7   ar
     7     7     8   ar
     8     3     9   ar
     9     8     9   ar
    10     9    10    1
    11    12    13    1
    12    12    14   ar
    13    12    18   ar
    14    10    13    1
    15     1    14    1
    16    14    15   ar
    17    15    16   ar
    18    16    17   ar
    19    17    18   ar
