1SRE
  PyMOL2.6          3D                             0

 18 19  0  0  0  0  0  0  0  0999 V2000
   14.0078    0.0207   -9.2316 C   0  0  0  0  0  0  0  0  0  0  0  0
   14.8363   -0.4997   -8.4769 O   0  0  0  0  0  0  0  0  0  0  0  0
   10.1156    3.4800  -13.1000 C   0  0  0  0  0  0  0  0  0  0  0  0
   10.4224    4.2912  -14.2022 C   0  0  0  0  0  0  0  0  0  0  0  0
   11.7152    4.2608  -14.7415 C   0  0  0  0  0  0  0  0  0  0  0  0
   12.0610    5.0842  -15.8402 O   0  0  0  0  0  0  0  0  0  0  0  0
   12.6998    3.4558  -14.1598 C   0  0  0  0  0  0  0  0  0  0  0  0
   12.4087    2.6800  -13.0398 C   0  0  0  0  0  0  0  0  0  0  0  0
   11.0967    2.6465  -12.5641 C   0  0  0  0  0  0  0  0  0  0  0  0
   10.8348    1.8729  -11.3246 N   0  0  0  0  0  0  0  0  0  0  0  0
   14.4039    0.5043  -10.4956 O   0  0  0  0  0  0  0  0  0  0  0  0
   11.5995    0.7733   -9.4136 C   0  0  0  0  0  0  0  0  0  0  0  0
   11.8679    1.3760  -10.7373 N   0  0  0  0  0  0  0  0  0  0  0  0
   12.5988    0.2004   -8.6584 C   0  0  0  0  0  0  0  0  0  0  0  0
   12.3221   -0.2784   -7.3668 C   0  0  0  0  0  0  0  0  0  0  0  0
   11.0520   -0.0835   -6.8243 C   0  0  0  0  0  0  0  0  0  0  0  0
   10.0537    0.5639   -7.5673 C   0  0  0  0  0  0  0  0  0  0  0  0
   10.3173    1.0124   -8.8498 C   0  0  0  0  0  0  0  0  0  0  0  0
  1  2  2  0  0  0  0
  1 11  1  0  0  0  0
  3  4  4  0  0  0  0
  4  5  4  0  0  0  0
  5  6  1  0  0  0  0
  5  7  4  0  0  0  0
  7  8  4  0  0  0  0
  3  9  4  0  0  0  0
  8  9  4  0  0  0  0
  9 10  1  0  0  0  0
 12 13  1  0  0  0  0
 12 14  4  0  0  0  0
 12 18  4  0  0  0  0
 10 13  1  0  0  0  0
  1 14  1  0  0  0  0
 14 15  4  0  0  0  0
 15 16  4  0  0  0  0
 16 17  4  0  0  0  0
 17 18  4  0  0  0  0
M  END
$$$$
